<?xml version="1.0" encoding="UTF-8"?>

<!-- generated on 2024-06-06 17:46:51 by Eclipse SUMO duarouter Version 1.10.0
<configuration xmlns:xsi="http://www.w3.org/2001/XMLSchema-instance" xsi:noNamespaceSchemaLocation="http://sumo.dlr.de/xsd/duarouterConfiguration.xsd">

    <input>
        <net-file value="test.net.xml"/>
        <route-files value="trips.trips.xml"/>
    </input>

    <output>
        <output-file value="map.rou.xml"/>
        <alternatives-output value="map.rou.alt.xml"/>
    </output>

    <time>
        <begin value="0"/>
        <end value="200"/>
    </time>

    <report>
        <no-warnings value="true"/>
        <ignore-errors value="true"/>
        <no-step-log value="true"/>
    </report>

</configuration>
-->

<routes xmlns:xsi="http://www.w3.org/2001/XMLSchema-instance" xsi:noNamespaceSchemaLocation="http://sumo.dlr.de/xsd/routes_file.xsd">
    <vehicle id="0" depart="0.00">
        <route edges="24057717#1 24057717#2 24057717#3 -1153827669#0 1131945899#0 1131945899#1 1131945899#2 1134053900 1134053901 547017180#0 547017180#1 547017180#2 1134053904 1131945898#0 1131945898#1 1131945898#2 1134053902#0 1134053902#1 1134053902#2 -1143096837 -1143096836#2 -1143096836#1 -1143096836#0 -1143096839#2 -1143096839#1 -1143096839#0 -24341760 -1143096838#1 -1143096838#0 -24000224#4 -24000224#3 -296308768#1 -296308768#0 -1096325598 -296308765#2 -296308765#1 -296308765#0 -303398913#2 -303398913#1 -303398913#0 -215617358 24341759#1 24341759#2 24341759#3 -24505202 1147323383#0 -1147323383#0"/>
    </vehicle>
    <vehicle id="1" depart="1.00">
        <route edges="-34849017 34849011#1 71834690 -71515533#5 -71515533#4 -71515533#3 -71515533#2 -71515533#1 -71515533#0 -1153827669#3 -1153827669#2 -1153827669#1 -1153827669#0 1131945899#0 1131945899#1 1131945899#2 1134053900 1134053901 547017180#0 547017180#1 547017180#2 1134053904 1131945898#0 1131945898#1 1131945898#2 1134053902#0 1134053902#1 1134053902#2 24057718#0 24057718#1 24057718#2 24057718#3 24057718#4 24057718#5 24057718#6 24057718#7 24057718#8 547017181#0 547017181#1 35051258 165034951 316753891 316753884 316753886 316753889 316753885 -316753885"/>
    </vehicle>
    <vehicle id="2" depart="2.00">
        <route edges="294958225 350108397 294958224 33505476 33505475 203188185 28435087 34727379 34727295 781372078 781372076 781372077 618077409 618077410 1160148427 618077411 564556363 618077417 507927706#0 507927706#1 4087298 316753890 33552121 33552119 4090204#0 4090204#1 296308756#0 296308756#1 33851664 296308761#0 296308761#1 215617358 303398913#0 303398913#1 303398913#2 296308765#0 296308765#1 -24505195 -24505196 -24505183#1 -24505183#0 1143096838#0 1143096838#1 24341760 1143096839#0 1143096839#1 1143096839#2 1143096836#0 1143096836#1 -1143096840 -24505208#3 24505211"/>
    </vehicle>
    <vehicle id="4" depart="4.00">
        <route edges="-79414783#0 79414783#0 79414783#1 24505184#3 1143096839#0 71838318 -1143096841#4 -1143096841#3 -1143096841#2 -1143096841#1 -1143096841#0 -1160879945#1 -1160879945#0 -1160879946 -1160879948 -1160879947"/>
    </vehicle>
    <vehicle id="5" depart="5.00">
        <route edges="-265187783#3 -265187783#2 -265187783#1 -265187783#0 -265187782#2 -265187782#1 -265187782#0 -456407213 -618077416#1 -618077416#0 -4086347 -507927707 -456407214 -507927706#1 -507927706#0 -618077417 -564556363 97308832#0 97308832#1 583987119#0 583987119#1 583987119#2 -775379618 -775379617#1 -775379617#0 -775379620#2 -775379620#1 -775379620#0 -775379619 -112954317#9 -112954317#8 -112954317#7 -112954317#6 -112954317#5 -112954317#4 -112954317#3 -112954317#2 -112954317#1 -112954317#0 -26785737 26785778 196634249 33466511 33466510#0 33466510#1 33466510#2 -120000800#2 -120000800#1 -120000800#0 -1127574924 1127574924 120000800#0"/>
    </vehicle>
    <vehicle id="6" depart="6.00">
        <route edges="-114446924#0 -94448847 -27155326#2 -27155326#1 -27155326#0 -223867702#1 -223867702#0 -162451730#3 128179632#0 128179632#1 -128179631 -162451734#1 -162451734#0 -1162781880#3 -1162781880#2 -1162781880#1 -1162781880#0 -205995791#6 -205995791#5 -205995791#4 -205995791#3 -205995791#2 -205995791#1 -205995791#0 -205995790 -83484757 -384542696 -4087299 384542690#0 384542690#1 384542672#5 384542672#6 384542672#0 384542672#1 1273549029 384542678 384542700 136354767 83484758 33505468 33505467 384542668 203219838 28435087 34727379 34727295 781372078 781372076 781372077 618077409 618077410 -618077413#2 -618077413#1 -618077413#0 -618077412#3 -618077412#2 -618077412#1 -618077412#0 -775379618 -775379617#1 -775379617#0 -775379620#2 -775379620#1 -775379620#0 -775379619 -112954317#9 -112954317#8 -112954317#7 -112954317#6 -112954317#5 -112954317#4 -112954317#3 -112954317#2 -112954317#1 -112954317#0 -26785737"/>
    </vehicle>
    <vehicle id="7" depart="7.00">
        <route edges="24341759#5 -24341759#5 -24341759#4 -24341759#3 -24341759#2 -24341759#1 -296308761#1 -296308761#0 -33851664 -296308756#1 -296308756#0 -4090204#1 -4090204#0 -33552119 -33552121 -316753890 -4087298 -507927706#1 -507927706#0 -618077417 -564556363 -618077411 -1160148427 -618077410 -618077409 -781372077 -781372076 -781372078 -34727295 -34727379 -28435087 -203219838 -384542668 -33505467 -33505468 -83484758 -136354767 -384542700 1273549031 384542693#0 384542693#1 384542696 83484757 205995790 205995791#0 205995791#1 205995791#2 205995791#3 205995791#4 205995791#5 205995791#6 1162781880#0 1162781880#1 1162781880#2 1162781880#3 162451734#0 162451734#1 128179631 -128179632#1 -128179632#0 162451730#3 223867702#0 223867702#1 223867702#2 178610972#0 178610972#1 178610970"/>
    </vehicle>
    <vehicle id="8" depart="8.00">
        <route edges="-265187783#4 -265187783#3 -265187783#2 -265187783#1 -265187783#0 -265187782#2 -265187782#1 -265187782#0 -456407213 -618077416#1 -618077416#0 -4086347 -507927707 -456407214 -507927706#1 -507927706#0 -618077417 -564556363 -618077411 -1160148427 -618077410 -618077409 -781372077 -781372076 -781372078 -34727295 -34727379 -28435087 -203219838 -384542668 -33505467 -33505468 -83484758 -136354767 -384542700 1273549031 384542693#0 384542693#1 384542696 83484757 205995790 205995791#0 205995791#1 205995791#2 205995791#3 205995791#4 205995791#5 205995791#6 1162781880#0 1162781880#1 1162781880#2 1162781880#3 162451734#0 162451734#1 128179631 -128179632#1 -128179632#0 162451730#3 223867702#0 223867702#1 223867702#2 178610972#0 178610972#1 178610975#0 178610975#1 178610975#2 178610975#3 -114446924#3 -94448873 -27286844#0 178610975#6 178610975#7 178610975#8 178610975#9 178610975#10 1208772002 223867701#0"/>
    </vehicle>
    <vehicle id="9" depart="9.00">
        <route edges="384542678 384542700 136354767 83484758 33505468 33505467 384542668 203219838 28435087 34727379 34727295 781372078 781372076 781372077 618077409 618077410 1160148427 618077411 564556363 618077417 507927706#0 507927706#1 4087298 316753890 33552121 33552119 4090204#0 4090204#1 296308756#0 296308756#1 -1097198933#3"/>
    </vehicle>
    <vehicle id="10" depart="10.00">
        <route edges="384542660 384542662 384542663 1273549028 136354767 83484758 33505468 33505467 384542668 203219838 28435087 34727379 34727295 781372078 781372076 781372077 618077409 618077410 -618077413#2 -618077413#1 -618077413#0 -618077412#3 -618077412#2 -618077412#1 -618077412#0 -775379618 -775379617#1 -775379617#0 -775379620#2 -775379620#1 -775379620#0 -775379619 -112954317#9 -112954317#8 -112954317#7 -112954317#6 -112954317#5 -112954317#4 -112954317#3 -112954317#2 -112954317#1 -112954317#0 -26785737 26785778 196634249 33466511 33466510#0 33466510#1 33466510#2 72102789 26785805 26785700 26757151#0 26757151#1"/>
    </vehicle>
    <vehicle id="11" depart="11.00">
        <route edges="-43165780 43157560 -205995791#2 -205995791#1 -205995791#0 -205995790 -83484757 -384542696 -4087299 384542690#0 384542690#1 384542672#5 384542672#6 384542672#0 384542672#1 1273549029 384542678 384542700 136354767 83484758 33505468 33505467 384542668 203219838 28435087 34727379 34727295 781372078 781372076 781372077 618077409 618077410 1160148427 618077411 564556363 618077417 507927706#0 507927706#1 4087298 316753890 33552121 33552119 4090204#0 4090204#1 296308756#0 296308756#1 33851664 296308761#0 296308761#1 215617358 303398913#0 303398913#1 303398913#2 296308765#0 296308765#1 -24505195 -24505196 -24505183#1"/>
    </vehicle>
    <vehicle id="12" depart="12.00">
        <route edges="87308185#7 87308185#8 1180190731 34955049 618077412#0 618077412#1 618077412#2 618077412#3 618077413#0 -618077413#0"/>
    </vehicle>
    <vehicle id="13" depart="13.00">
        <route edges="-182068376 -47884682 -378926504 -47884683 -33552119 -33552121 -316753890 -4087298 -507927706#1 -507927706#0 -618077417 -564556363 -618077411 -1160148427 -618077410 -618077409 -781372077 -781372076 -781372078 -34727295 -34727379 -28435087 -203219838 -384542668 -33505467 -33505468 -83484758 -136354767 -384542700 1273549031 384542693#0 384542693#1 384542696 83484757 205995790 205995791#0 205995791#1 205995791#2 205995791#3 205995791#4 -205995791#4"/>
    </vehicle>
    <vehicle id="14" depart="14.00">
        <route edges="43165785#0 -43165780 43157560 -205995791#2 -205995791#1 -205995791#0 -205995790 -83484757 -384542696 -4087299 384542690#0 384542690#1 384542672#5 384542672#6 384542672#0 384542672#1 1273549029 384542678 384542700 136354767 83484758 33505468 33505467 384542668 203219838 28435087 34727379 34727295 781372078 781372076 781372077 618077409 618077410 1160148427 618077411 564556363 618077417 507927706#0 507927706#1 4087298 316753890 33552121 33552119 4090204#0 4090204#1 296308756#0 296308756#1 33851664 296308761#0 296308761#1 215617358 303398913#0 303398913#1 303398913#2 296308765#0 296308765#1 -24505195 -24505196 -24505183#1 -24505183#0 1143096838#0 24505212 1160879947 1160879948 1160879946 1160879945#0 1160879949 1160879950 232983281"/>
    </vehicle>
    <vehicle id="15" depart="15.00">
        <route edges="384542665#1 384542658 1209657336 182068377 297659265 89528501 35051708 43856914 -33714042#1 89528500 297659264 1105432017 297659263 378926509 384542660 384542662 384542663 1273549028 136354767 83484758 33505468 33505467 384542668 203219838 28435087 34727379 34727295 781372078 781372076 781372077 618077409 618077410 1160148427 618077411 564556363 618077417 507927706#0 507927706#1 4087298 316753890 33552121 33552119 4090204#0 4090204#1 296308756#0 296308756#1 33851664 296308761#0 296308761#1 215617358 303398913#0 303398913#1 303398913#2 296308765#0 296308765#1 296308765#2 1096325598 296308768#0 296308768#1 296308770#0 296308770#1 296308772"/>
    </vehicle>
    <vehicle id="16" depart="16.00">
        <route edges="128179631 -128179631 -162451734#1 -162451734#0 -1162781880#3 -1162781880#2 -1162781880#1 -1162781880#0 -205995791#6 -205995791#5 -205995791#4 -205995791#3 -205995791#2 -205995791#1 -205995791#0 -205995790 -83484757 -384542696 -4087299 384542690#0 384542690#1 384542672#5 384542672#6 384542672#0 384542672#1 1273549029 384542678 384542700 136354767 83484758 33505468 33505467 384542668 203219838 28435087 34727379 34727295 781372078 781372076 781372077 618077409 618077410 -790764785#1 -790764785#0 -790764784 -618077414 -82203398#3 -82203398#2 -82203398#1 -82203398#0 233021638 34399372 34399373 456407215 82717611 82717610#0 82717610#1 82717610#2 82717610#3 90765472#0 90765472#1"/>
    </vehicle>
    <vehicle id="18" depart="18.00">
        <route edges="418994273#2 418994273#3 418994273#4 418994273#5 418994273#6 -223867701#0 -1208772002 -178610975#10 -178610975#9 -178610975#8 -178610975#7 -178610975#6 27286844#0 94448873 -114446924#2 -114446924#1 -114446924#0 -94448847 -27155326#2 -27155326#1 -27155326#0 -223867702#1 -223867702#0 -162451730#3 128179632#0 128179632#1 -128179631 -162451734#1 -162451734#0 -1162781880#3 -1162781880#2 -1162781880#1 -1162781880#0 -205995791#6 -205995791#5 -205995791#4 -205995791#3 -205995791#2 -205995791#1 -205995791#0 -205995790 -83484757 -384542696 -4087299 384542690#0 384542690#1 384542672#5 384542672#6 384542672#0 384542672#1 1273549029 384542678 384542700 136354767 83484758 33505468 33505467 384542668 203219838 28435087 34727379 34727295 781372078 781372076 781372077 618077409 618077410 1160148427 618077411 564556363 618077417 507927706#0 507927706#1 4087298 316753890 33552121 33552119 4090204#0 4090204#1 296308756#0 296308756#1 33851664 296308761#0 296308761#1 215617358 303398913#0 303398913#1 303398913#2 296308765#0 296308765#1 296308765#2 1096325598 296308768#0 296308768#1 296308770#0 24000223#0 24000223#1 24057705"/>
    </vehicle>
    <vehicle id="19" depart="19.00">
        <route edges="60857741 183555405#0 183555405#1 35051708 43856914 -33714042#1 89528500 297659264 1105432017 297659263 378926509 384542660 384542662 384542663 1273549028 136354767 83484758 33505468 33505467 384542668 203188184 -33505475 -33505476 -294958224 -350108397 -294958225 -294958226 -294958227 -222830297#4 -222830297#3 -222830297#2 222830297#2"/>
    </vehicle>
    <vehicle id="20" depart="20.00">
        <route edges="265187784 297659264 1105432017 297659263 378926509 384542660 316761351 384542672#1 384542672#2 384542672#3 384542685#0 384542685#1 4087299 384542696 83484757 205995790 205995791#0 205995791#1 205995791#2 205995791#3 205995791#4 205995791#5 205995791#6 1162781880#0 1162781880#1 1162781880#2 1162781880#3 162451734#0 162451734#1 128179631 -128179631"/>
    </vehicle>
    <vehicle id="21" depart="21.00">
        <route edges="-26826843#0 26826843#0 26826843#1 26826843#2 26826843#3 24341759#0 -296308761#1 -296308761#0 -33851664 -296308756#1 -296308756#0 -4090204#1 -4090204#0 -33552119 -33552121 -316753890 -4087298 -507927706#1 -507927706#0 -618077417 -564556363 -618077411 -1160148427 -618077410 -618077409 -781372077 -781372076 -781372078 -34727295 -34727379 -28435087 -203219838 -384542668 -33505467 -33505468 -83484758 -136354767 -384542700 1273549031 384542693#0 384542693#1 384542696 83484757 205995790 205995791#0 205995791#1 205995791#2 205995791#3 205995791#4 205995791#5 205995791#6 1162781880#0 1162781880#1 1162781880#2 1162781880#3 162451734#0 162451734#1 128179631 -128179632#1 -128179632#0 162451730#3 223867702#0 223867702#1 223867702#2 178610972#0 178610972#1 178610975#0 178610975#1 178610975#2 178610975#3 -114446924#3 -94448873 -27286844#0 178610975#6 178610975#7 178610975#8 178610975#9 178610975#10 1208772002 223867701#0 -418994273#6 -418994273#5 -418994273#4 -418994273#3 -418994273#2 -418994273#1"/>
    </vehicle>
    <vehicle id="22" depart="22.00">
        <route edges="-162451730#3 128179632#0 128179632#1 -128179631 -162451734#1 -162451734#0 -1162781880#3 -1162781880#2 -1162781880#1 -1162781880#0 -205995791#6 -205995791#5 -205995791#4 -205995791#3 -205995791#2 -205995791#1 -205995791#0 -205995790 -83484757 -384542696 384542656 384542665#0 384542665#1 384542658 1209657336 182068377 297659265 89528501 35051708 43856914 -33714042#1 -33714042#0 -33714041"/>
    </vehicle>
    <vehicle id="23" depart="23.00">
        <route edges="-205995791#2 205995791#2 205995791#3 205995791#4 205995791#5 205995791#6 1162781880#0 1162781880#1 1162781880#2 1162781880#3 162451734#0 162451734#1 128179631 -128179632#1 -128179632#0 162451730#3 223867702#0 223867702#1 223867702#2 178610972#0 178610972#1 178610975#0 178610975#1 178610975#2 178610975#3 -114446924#3 -94448873 -27286844#0 178610975#6 178610975#7 178610975#8 178610975#9 178610975#10 1208772002 223867701#0 -418994273#6 -418994273#5 -418994273#4 -418994273#3 -418994273#2 -418994273#1 -418994273#0"/>
    </vehicle>
    <vehicle id="24" depart="24.00">
        <route edges="24057716#0 24057717#0 24057717#1 24057717#2 24057717#3 1153827669#1 1153827669#2 1153827669#3 71515533#0 71515533#1 71515533#2 71515533#3 71515533#4 71515533#5 71515533#6 71515533#7 71834683 -71834685"/>
    </vehicle>
    <vehicle id="26" depart="26.00">
        <route edges="-34727295 -34727379 -28435087 28435087 34727379 34727295 781372078 781372076 781372077 618077409 618077410 -790764785#1 -790764785#0 -790764784 -618077414 -82203398#3 -82203398#2 82203398#2"/>
    </vehicle>
    <vehicle id="27" depart="27.00">
        <route edges="24341759#1 -24341759#1 -296308761#1 -296308761#0 -33851664 -296308756#1 -296308756#0 -4090204#1 -4090204#0 -33552119 -33552121 -316753890 -4087298 -507927706#1 -507927706#0 -618077417 -564556363 -618077411 -1160148427 -618077410 -618077409 -781372077 -781372076 -781372078 -34727295 -34727379 -28435087 -203219838 -384542668 -33505467 -33505468 -83484758 -136354767 -384542700 1273549031 384542693#0 384542693#1 384542696 83484757 205995790 205995791#0 205995791#1 205995791#2 205995791#3 205995791#4 205995791#5 205995791#6 1162781880#0 1162781880#1 1162781880#2 1162781880#3 162451734#0 162451734#1 128179631 -128179632#1 -128179632#0 162451730#3 223867702#0 223867702#1 27155326#0 173882768 237495778#0 237495778#1"/>
    </vehicle>
    <vehicle id="28" depart="28.00">
        <route edges="-24341759#5 -24341759#4 -24341759#3 -24341759#2 -24341759#1 215617358 303398913#0 303398913#1 303398913#2 296308765#0 296308765#1 296308765#2 1096325598 296308768#0 296308768#1 296308770#0 296308770#1 296308772"/>
    </vehicle>
    <vehicle id="29" depart="29.00">
        <route edges="-24057718#6 24057718#6 24057718#7 24057718#8 547017181#0 547017181#1 35051258 165034951 -316753892 -182068376 -47884682 -378926504 -47884683 -33552119 -33552121 -316753890 -4087298 -507927706#1 -507927706#0 -618077417 -564556363 -618077411 -1160148427 -618077410 -618077409 -781372077"/>
    </vehicle>
    <vehicle id="30" depart="30.00">
        <route edges="94448851#1 -94448851#1 -94448851#0 162451730#1 -128179632#2 -128179631 -162451734#1 -162451734#0 -1162781880#3 -1162781880#2 -1162781880#1 -1162781880#0 -205995791#6 -205995791#5 -205995791#4 -205995791#3 -205995791#2 -205995791#1 -205995791#0 -205995790 -83484757 -384542696 -4087299 384542690#0 384542690#1 384542672#5 384542672#6 384542672#0 384542672#1 1273549029 384542678 384542700 136354767 83484758 33505468 33505467 384542668 203219838 28435087 34727379 34727295 781372078 781372076 781372077 618077409 618077410 1160148427 618077411 564556363 618077417 507927706#0 507927706#1 4087298 316753890 33552121 33552119 4090204#0 4090204#1 296308756#0 296308756#1 33851664 296308761#0 296308761#1 24341759#1 24341759#2 24341759#3"/>
    </vehicle>
    <vehicle id="31" depart="31.00">
        <route edges="162451730#0 162451730#1 -128179632#2 -128179631 -162451734#1 -162451734#0 -1162781880#3 -1162781880#2 -1162781880#1 -1162781880#0 -205995791#6 -205995791#5 -205995791#4 -205995791#3 -205995791#2 -205995791#1 -205995791#0 -205995790 -83484757 -384542696 -4087299 384542690#0 384542690#1 384542672#5 384542672#6 384542672#0 384542672#1 1273549029 384542678 384542700 136354767 83484758 33505468 33505467 384542668 203219838 28435087 34727379 34727295 781372078 781372076 781372077 618077409 618077410 1160148427 618077411 564556363 618077417 507927706#0 507927706#1 39496286#0 -39496286#0 456407214 507927707 4086347 618077416#0 618077416#1 456407213 265187782#0 265187782#1 265187782#2 265187783#0 265187783#1 265187783#2 265187783#3 265187783#4 265187783#5 265187783#6 265187783#7 265187783#8 265187783#9 265187783#10 265187783#11 265187783#12 265187783#13"/>
    </vehicle>
    <vehicle id="32" depart="32.00">
        <route edges="43165780 -43165780 43157560 -205995791#2 -205995791#1 -205995791#0 -205995790 -83484757 -384542696 -4087299 384542690#0 384542690#1 384542672#5 384542672#6 384542672#0 384542672#1 1273549029 384542678 384542700 136354767 83484758 33505468 33505467 384542668 203219838 28435087 34727379 34727295 781372078 781372076 781372077 618077409 618077410 -618077413#2 -618077413#1 -618077413#0 81622856#0 81622856#1 -34954980#1 34954980#1"/>
    </vehicle>
    <vehicle id="33" depart="33.00">
        <route edges="-26926573#1 -26926573#0 112954317#6 112954317#7 112954317#8 112954317#9 775379619 775379620#0 775379620#1 775379620#2 775379617#0 775379617#1 775379618 618077412#0 618077412#1 618077412#2 618077412#3 618077413#0 618077413#1 618077413#2 -618077410 -618077409 -781372077 -781372076 -781372078 -34727295 -34727379 -28435087 -203219838 -384542668 -33505467 -33505468 -83484758 -136354767 -384542700 1273549031 384542693#0 384542693#1 384542696 83484757 205995790 205995791#0 205995791#1 205995791#2 205995791#3 205995791#4 205995791#5 205995791#6 1162781880#0 1162781880#1 -1162781880#1"/>
    </vehicle>
    <vehicle id="34" depart="34.00">
        <route edges="-418994273#1 418994273#1 418994273#2 418994273#3 418994273#4 418994273#5 418994273#6 -223867701#0 -1208772002 -178610975#10 -178610975#9 -178610975#8 -178610975#7 -178610975#6 27286844#0 27286844#1 27286844#2 27286844#3 377218391 377218860#0 -377218860#0"/>
    </vehicle>
    <vehicle id="35" depart="35.00">
        <route edges="-265187783#13 -265187783#12 -265187783#11 -265187783#10 -265187783#9 -265187783#8 -265187783#7 -265187783#6 -265187783#5 -265187783#4 -265187783#3 -265187783#2 -265187783#1 -265187783#0 -265187782#2 -265187782#1 -265187782#0 -456407213 -618077416#1 -618077416#0 -4086347 4733325 233021638 34399372 34399373 456407215 82717611 82717610#0 82717610#1 82717610#2 82717610#3"/>
    </vehicle>
    <vehicle id="36" depart="36.00">
        <route edges="618077416#0 -618077416#0 -4086347 -507927707 -456407214 4087298 316753890 33552121 33552119 4090204#0 4090204#1 296308756#0 296308756#1 33851664 296308761#0 296308761#1 215617358 303398913#0 303398913#1 303398913#2 296308765#0 296308765#1 296308765#2 -24341755#1 -24341755#0 -1096349412 -521042008"/>
    </vehicle>
    <vehicle id="37" depart="37.00">
        <route edges="24505183#0 24505183#1 24505196 24505195 -296308765#1 -296308765#0 -303398913#2 -303398913#1 -303398913#0 -215617358 -296308761#1 -296308761#0 -33851664 -296308756#1 -296308756#0 -4090204#1 -4090204#0 -33552119 -33552121 -316753890 -4087298 -507927706#1 -507927706#0 -618077417 -564556363 -618077411 -1160148427 -618077410 -618077409 -781372077 -781372076 621654125 34955086#0 34955086#1 34955086#2 -79114835#0 79211766 -79211766"/>
    </vehicle>
    <vehicle id="38" depart="38.00">
        <route edges="735221526 43174670 735209577 -112954317#2 -112954317#1 -112954317#0 -26785737 24421819#0 24421819#1 1068606513#0 1068606513#1 1096349413#0 1096349413#1 1096349413#2 1096349413#3 1096349415#0 1096349415#1 1096349414 24341759#0 215617358 303398913#0 303398913#1 303398913#2 296308765#0 296308765#1 -24505195 -24505196 -24505183#1 -24505183#0 1143096838#0 1143096838#1 24341760 1143096839#0 1143096839#1 1143096839#2 1143096836#0 1143096836#1 1143096836#2 1143096837 -1134053902#2 -1134053902#1 -1134053902#0 -1131945898#2 -1131945898#1 1095342164"/>
    </vehicle>
    <vehicle id="39" depart="39.00">
        <route edges="-33714042#0 -33714041 -72102839 72102839 33714041 33714042#0 89528500 297659264 1105432017 297659263 378926509 384542660 384542662 384542663 1273549028 136354767 83484758 33505468 33505467 384542668 203219838 28435087 34727379 34727295 781372078 781372076 781372077 618077409 618077410 -618077410 -618077409 -781372077 -781372076 621654125 34955086#0 34955086#1 -34954980#5 -34954980#4"/>
    </vehicle>
    <vehicle id="41" depart="41.00">
        <route edges="182068377 297659265 89528501 35051708 43856914 -33714042#1 89528500 297659264 1105432017 297659263 378926509 384542660 384542662 384542663 1273549028 136354767 83484758 33505468 33505467 384542668 203219838 28435087 34727379 34727295 781372078 781372076 781372077 618077409 618077410 1160148427 618077411 564556363 618077417 507927706#0 507927706#1 4087298 316753890 33552121 33552119 4090204#0 4090204#1 296308756#0 296308756#1 33851664 296308761#0 296308761#1 215617358 303398913#0 303398913#1 303398913#2 296308765#0 296308765#1 -24505195 -24505196 -24505183#1 -24505183#0 1143096838#0 1143096838#1 24341760 1143096839#0 1143096839#1 1143096839#2 1143096836#0 1143096836#1 1143096836#2 1143096837 -1134053902#2 -1134053902#1 -1134053902#0 -1131945898#2 -1131945898#1 -1131945898#0 -1134053904 -547017180#2 -547017180#1 -547017180#0 -1134053901 -1134053900 -1131945899#2 -1131945899#1 -1131945899#0 1153827669#0 1153827669#1 1153827669#2 1153827669#3 71515533#0 71515533#1 71515533#2 71515533#3 71834688"/>
    </vehicle>
    <vehicle id="42" depart="42.00">
        <route edges="-72271559#1 -72271559#0 -968417865 -72271564 1097444293 71838315 1097444297 1097444296 1097444295 1097444294 -71516197#0 547017180#2 1134053904 1131945898#0 1131945898#1 1131945898#2 1134053902#0 1134053902#1 1134053902#2 -1143096837 -1143096836#2 -1143096836#1 -1143096836#0 -1143096839#2 -1143096839#1 -1143096839#0 -24341760 -1143096838#1 -1143096838#0 -24000224#4 -24000224#3 -296308768#1 -296308768#0 -1096325598 -296308765#2"/>
    </vehicle>
    <vehicle id="43" depart="43.00">
        <route edges="94448873 -114446924#2 -114446924#1 -114446924#0 -94448847 -27155326#2 -27155326#1 -27155326#0 -223867702#1 -223867702#0 -162451730#3 128179632#0 128179632#1 -128179631 128179631"/>
    </vehicle>
    <vehicle id="44" depart="44.00">
        <route edges="-178610975#5 -178610975#4 -178610975#3 -178610975#2 -178610975#1 -178610975#0 178610970 -223867702#2 -223867702#1 -223867702#0 -162451730#3 128179632#0 128179632#1 -128179631"/>
    </vehicle>
    <vehicle id="45" depart="45.00">
        <route edges="-222830297#2 222830297#2 222830297#3 222830297#4 294958227 294958226 294958225 350108397 294958224 33505476 33505475 203188185 28435087 34727379 34727295 781372078 781372076 781372077 618077409 618077410 1160148427 618077411 564556363 618077417 507927706#0 507927706#1 4087298 316753890 33552121 33552119 4090204#0 4090204#1 296308756#0 296308756#1 33851664 296308761#0 296308761#1 215617358 303398913#0 303398913#1 303398913#2 296308765#0 296308765#1 -24505195 -24505196 -24505183#1 -24505183#0 1143096838#0 1143096838#1 24341760 1143096839#0 1143096839#1 1143096839#2 1143096836#0 1143096836#1 1143096836#2 1143096837 -1134053902#2 -1134053902#1 -1134053902#0 -1131945898#2 -1131945898#1 -1131945898#0 -1134053904 -547017180#2 -547017180#1 -547017180#0 -1134053901 -1134053900 -1131945899#2 -1131945899#1 -1131945899#0 -1153827670#1 -1153827670#0 -693902970#1 -693902970#0 -1097720174#1 24057716#0"/>
    </vehicle>
    <vehicle id="47" depart="47.00">
        <route edges="-140584914#1 -140584914#0 -82717610#2 -82717610#1 -82717610#0 -82717611 -456407215 -34399373 -34399372 -233021638 82203398#0 82203398#1 82203398#2 82203398#3 618077414 790764784 790764785#0 790764785#1 -618077410 -618077409 -781372077 -781372076 621654125 34955086#0 34955086#1 34955086#2 34955086#3 -78142020#1 -78142020#0"/>
    </vehicle>
    <vehicle id="48" depart="48.00">
        <route edges="94448861 -94448861 -178610975#4 -178610975#3 -178610975#2 -178610975#1 -178610975#0 178610970 -223867702#2 -223867702#1 -223867702#0 -162451730#3 128179632#0 128179632#1 -128179631 -162451734#1 -162451734#0 -1162781880#3 -1162781880#2 -1162781880#1 -1162781880#0 -205995791#6 -205995791#5 -205995791#4 -205995791#3 -205995791#2 -205995791#1 -205995791#0 -205995790 -83484757 -384542696 -4087299 384542690#0 384542690#1 384542672#5 384542672#6 384542672#0 384542672#1 1273549029 384542678 384542700 136354767 83484758 33505468 33505467 384542668 203219838 28435087 34727379 34727295 781372078 781372076 781372077 618077409 618077410 -790764785#1 -790764785#0 -790764784 -618077414 -82203398#3 -82203398#2 -82203398#1 -82203398#0 233021638 34399372 34399373 456407215 82717611 82717610#0 82717610#1 82717610#2 140584914#0 140584914#1 140584914#2"/>
    </vehicle>
    <vehicle id="49" depart="49.00">
        <route edges="90765452#2 -90765452#2 -90765452#1 -90765452#0 -90765472#2 -90765472#1 -90765472#0 -82717610#3 -82717610#2 -82717610#1 -82717610#0 -82717611 -456407215 -34399373 -34399372 -233021638 82203398#0 82203398#1 82203398#2 82203398#3 618077414 790764784 790764785#0 790764785#1 -618077410 -618077409 -781372077 -781372076 -781372078 -34727295 -34727379 -28435087 -203188185 -33505475 -33505476 -294958224 -350108397 -294958225 -294958226 -294958227 -222830297#4 -222830297#3 -206125359 24493802#0 24493802#1 24493802#2 1149703039 1149703038 568541685"/>
    </vehicle>
    <vehicle id="50" depart="50.00">
        <route edges="-1128193623#1 1128193623#1 1160879941 1097720174#0 1097720174#1 693902970#0 693902970#1 1153827670#0 1153827670#1 1131945899#0 1131945899#1 1131945899#2 1134053900 1134053901 547017180#0 547017180#1 547017180#2 1134053904 1131945898#0 1131945898#1 1131945898#2 1134053902#0 1134053902#1 1134053902#2 -1143096837 -1143096836#2 -1143096836#1 -1143096836#0 -1143096839#2 -1143096839#1 -1143096839#0 -24341760 -1143096838#1 -1143096838#0 -24000224#4 -24000224#3 -296308768#1 -296308768#0 -1096325598 -296308765#2 -296308765#1 -296308765#0 -303398913#2 -303398913#1 -303398913#0 -215617358 -296308761#1 -296308761#0 -33851664 -296308756#1 -296308756#0 -4090204#1 -4090204#0 -33552119 -33552121 -316753890 -4087298 -507927706#1 -507927706#0 -618077417 -564556363 -618077411 -1160148427 -618077410 -618077409 -781372077 -781372076 -781372078 -34727295 -34727379 -28435087 -203219838 -384542668 -33505467 -33505468 -83484758 -136354767 -384542700 1273549031 384542693#0 384542693#1 384542696 83484757 205995790 205995791#0 205995791#1 205995791#2 205995791#3 205995791#4 205995791#5 205995791#6 1162781880#0 1162781880#1 1162781880#2 1162781880#3 162451734#0 162451734#1 128179631 -128179632#1 -128179632#0 162451730#3 223867702#0 223867702#1 223867702#2 178610972#0 178610972#1 178610975#0 178610975#1 178610975#2 178610975#3 -114446924#3 -94448873 -27286844#0 27286844#0"/>
    </vehicle>
    <vehicle id="51" depart="51.00">