<?xml version="1.0" encoding="UTF-8"?>

<!-- generated on 2024-06-06 17:18:50 by Eclipse SUMO polyconvert Version 1.10.0
<configuration xmlns:xsi="http://www.w3.org/2001/XMLSchema-instance" xsi:noNamespaceSchemaLocation="http://sumo.dlr.de/xsd/polyconvertConfiguration.xsd">

    <input>
        <net-file value="test.net.xml"/>
        <osm-files value="map.osm"/>
        <type-file value="typemap.xml"/>
    </input>

    <output>
        <output-file value="map.poly.xml"/>
    </output>

    <processing>
        <poi-layer-offset value="5"/>
    </processing>

    <report>
        <xml-validation value="never"/>
    </report>

</configuration>
-->

<additional xmlns:xsi="http://www.w3.org/2001/XMLSchema-instance" xsi:noNamespaceSchemaLocation="http://sumo.dlr.de/xsd/additional_file.xsd">
    <location netOffset="-661848.36,-5562832.80" convBoundary="-4735.29,-14944.16,31040.51,11148.41" origBoundary="11.203450,50.054028,11.699397,50.295343" projParameter="+proj=utm +zone=32 +ellps=WGS84 +datum=WGS84 +units=m +no_defs"/>

    <poly id="1004365176" type="unknown" color="51,128,255" fill="1" layer="-1.00" shape="4988.428821,4109.250689 4987.873530,4105.338388 4997.718118,4103.944897 4998.273401,4107.857199 4988.428821,4109.250689"/>
    <poly id="1008622521" type="unknown" color="51,128,255" fill="1" layer="-1.00" shape="4983.152056,4076.791010 5014.009415,4057.517787 5005.739228,4009.907645 4975.969175,4025.008611 4983.152056,4076.791010"/>
    <poly id="1008622522" type="unknown" color="51,128,255" fill="0" layer="-1.00" shape="5000.456902,4108.337507 4985.542772,4110.684631"/>
    <poly id="1008622523" type="unknown" color="51,128,255" fill="0" layer="-1.00" shape="4977.865601,4079.195639 4984.252368,4078.350119 5023.608440,4056.673037"/>
    <poly id="102021315" type="unknown" color="51,128,255" fill="0" layer="-1.00" shape="3875.096985,5032.336268 3884.510366,5040.119166"/>
    <poly id="1028927521" type="unknown" color="51,128,255" fill="1" layer="-1.00" shape="3640.615408,5022.010121 3637.570426,5022.160073 3637.334685,5017.356537 3640.379670,5017.206585 3640.615408,5022.010121"/>
    <poly id="1028927522" type="unknown" color="51,128,255" fill="1" layer="-1.00" shape="3639.181556,5004.349737 3635.910137,5004.436995 3635.798290,5000.238234 3639.069712,5000.150975 3639.181556,5004.349737"/>
    <poly id="1028927523" type="unknown" color="51,128,255" fill="1" layer="-1.00" shape="3612.839311,5041.464658 3612.898719,5048.722000 3614.861872,5048.705256 3614.809250,5041.459254 3612.839311,5041.464658"/>
    <poly id="1028927524" type="unknown" color="51,128,255" fill="1" layer="-1.00" shape="3595.498230,4997.881210 3595.948398,5002.446604 3592.362080,5002.791155 3591.919039,4998.225983 3595.498230,4997.881210"/>
    <poly id="1029578038" type="unknown" color="51,128,255" fill="0" layer="-1.00" shape="3387.276668,3497.842633 3385.710820,3493.787869 3385.806221,3490.719508 3388.533553,3487.955539 3392.304383,3486.759680 3396.228773,3487.972246 3402.930605,3491.697083 3409.265825,3493.207185 3413.024532,3494.926500"/>
    <poly id="1029578041" type="unknown" color="51,128,255" fill="0" layer="-1.00" shape="3796.192535,2907.099051 3794.334879,2870.941834 3787.737325,2848.958691 3780.252680,2831.154313 3756.288478,2764.329455 3751.804048,2699.257743 3748.819753,2679.768636 3745.667419,2660.630394 3745.274653,2650.547301 3744.989502,2641.135243 3749.723334,2630.822370 3765.169265,2614.489120 3777.832957,2601.518912 3789.864455,2590.966068 3805.975898,2583.300137 3815.139674,2579.768792 3820.235173,2579.393443 3829.621276,2579.496787 3832.224420,2579.822735 3836.459728,2581.846502"/>
    <poly id="103012317" type="unknown" color="51,128,255" fill="0" layer="-1.00" shape="1770.941563,3462.711308 1810.455078,3416.100601 1846.799700,3360.679461 1860.149496,3333.794104 1861.592692,3329.354045 1871.066413,3275.809447 1863.657232,3219.686145 1846.451350,3163.149851 1843.827731,3140.780020 1844.690931,3122.256527 1845.405665,3102.526658"/>
    <poly id="103012329" type="unknown" color="51,128,255" fill="0" layer="-1.00" shape="1741.593882,3180.463316 1427.890539,2995.354198 1317.675063,2888.781947 1367.406444,2845.374868 1517.729287,2841.669206 1600.074897,2877.495005 1696.011889,2966.263526 1749.690556,3017.378534 1829.255554,3091.435603 1841.538723,3100.126361 1845.405665,3102.526658"/>
    <poly id="103012336" type="unknown" color="51,128,255" fill="1" layer="-1.00" shape="1789.070892,5123.509739 1854.775656,5107.807658 1934.489589,5115.495117 1943.265067,5090.349653 1991.230928,5073.434572 1980.676956,4994.957976 1863.484417,5017.895863 1764.162610,5028.111176 1772.314753,5060.710952 1632.414195,5064.704705 1477.611260,5120.511260 1457.372529,5146.495600 1411.606535,5182.478171 1391.602136,5179.493108 1376.891406,5176.325834 1331.820992,5146.720871 1312.237366,5163.022402 1284.046190,5158.217254 1245.065021,5171.297142 1230.729588,5158.460618 1304.715965,5139.311696 1366.644754,5103.824850 1374.837211,5080.841724 1584.929286,5013.379636 1586.195849,5024.635461 1679.689631,5004.812136 1786.912752,4964.915836 1859.148271,4969.634222 1862.385414,4999.601170 1946.979416,4981.466686 1957.414315,4966.854862 1962.427808,4963.270503 1979.044773,4949.071923 1982.558325,4953.164067 1994.516761,4948.859197 2005.978153,4956.735174 2095.338248,4953.717016 2122.096034,4941.400884 2138.468704,4965.185855 2155.529197,4998.818051 2130.707778,5037.188537 2135.127514,5070.408205 2144.351413,5084.168853 2173.758583,5090.039893 2201.811646,5135.362199 2258.610938,5127.991881 2296.653567,5216.287807 2326.935494,5205.606179 2349.668890,5223.724099 2339.079359,5243.315720 2344.358941,5260.905248 2414.107367,5211.617458 2488.795873,5190.692673 2524.114086,5232.447016 2634.114802,5172.790244 2644.844122,5171.308654 2673.383806,5167.374172 2691.055463,5187.829483 2612.831253,5215.274252 2626.320557,5236.434442 2668.135771,5229.439138 2667.070163,5290.799059 2396.317651,5356.264500 2280.202806,5371.748273 2265.819494,5325.679371 2102.790691,5351.335150 2095.533552,5317.104292 2251.180009,5287.892903 2245.307220,5235.443672 2085.042605,5279.435271 2048.476288,5224.381046 2006.789687,5227.245574 2026.173431,5353.955916 1823.368607,5347.702375 1789.526708,5339.192811 1719.641474,5366.072698 1703.813901,5339.868817 1776.698571,5296.478347 1810.940549,5319.110271 1862.830368,5309.091939 1824.968148,5268.933005 1789.070892,5123.509739"/>
    <poly id="103012345" type="unknown" color="51,128,255" fill="0" layer="-1.00" shape="2200.278442,5057.452925 2190.109650,5068.745278 2179.449315,5077.930424 2168.872171,5084.191522 2153.339187,5089.164577 2143.370490,5091.438467 2109.416346,5106.637001 2055.495174,5121.575662 1981.248241,5120.820745 1929.074040,5112.913385 1848.529762,5103.453345 1786.500349,5121.238360 1663.770244,5158.665237 1567.005920,5181.659664 1553.224531,5184.473879 1531.533851,5187.590100 1504.109208,5187.570057"/>
    <poly id="1044337431" type="unknown" color="51,128,255" fill="0" layer="-1.00" shape="4190.907014,4399.962002 4182.851910,4397.796234 4070.051239,4392.847933 4064.390772,4384.169302 4058.803076,4379.788393"/>
    <poly id="104578780" type="unknown" color="51,128,255" fill="0" layer="-1.00" shape="3216.484206,1365.893588 3260.988846,1678.790773 3320.755495,2098.067667 3348.162404,2426.203802 3372.122809,2721.951061 3569.706997,3036.241542 3736.390267,3307.680872 3895.260915,3482.502707 4155.793300,3632.806850 4185.683016,3924.806974 4205.954425,3998.641045 4213.901583,4027.577648 4245.809774,4143.806482"/>
    <poly id="1068606511" type="unknown" color="51,128,255" fill="0" layer="-1.00" shape="3919.053963,4442.194705 3925.171294,4442.641524 3949.654180,4444.451552 4000.308625,4454.567824 4014.929713,4456.982813 4022.550190,4457.064935 4030.182181,4457.692703"/>
    <poly id="1068606512" type="unknown" color="51,128,255" fill="0" layer="-1.00" shape="4030.182181,4457.692703 4037.980014,4457.123827 4040.265665,4457.072786"/>
    <poly id="1068606513" type="unknown" color="51,128,255" fill="0" layer="-1.00" shape="4004.333584,4802.323829 4010.867576,4792.612701 4021.362607,4781.077843 4034.676612,4770.009384 4046.595850,4760.867073 4063.291064,4751.918458"/>
    <poly id="1068606514" type="unknown" color="51,128,255" fill="0" layer="-1.00" shape="4298.870423,5093.102805 4308.062402,5092.199623 4319.052673,5086.055722 4336.820382,5076.117752 4354.815964,5067.110603 4369.629569,5058.526962"/>
    <poly id="1068606515" type="unknown" color="51,128,255" fill="0" layer="-1.00" shape="4369.629569,5058.526962 4374.092577,5056.396482 4378.562718,5054.266229"/>
    <poly id="1068606516" type="unknown" color="51,128,255" fill="0" layer="-1.00" shape="4298.870423,5093.102805 4302.870130,5097.111633 4306.869830,5101.120464 4316.342648,5102.418324 4355.127245,5100.271062"/>
    <poly id="1068717620" type="unknown" color="51,128,255" fill="0" layer="-1.00" shape="3269.027991,3017.344563 3259.934528,3019.109628 3248.167765,3024.653078 3229.929309,3039.498838"/>
    <poly id="107302063" type="unknown" color="51,128,255" fill="0" layer="-1.00" shape="3561.078810,5044.804559 3612.244591,5039.020217"/>
    <poly id="107302118" type="unknown" color="51,128,255" fill="0" layer="-1.00" shape="3561.078810,5044.804559 3553.484255,5045.981330"/>
    <poly id="1080123122" type="unknown" color="51,128,255" fill="1" layer="-1.00" shape="3875.760267,4180.981413 3872.495144,4177.874995 3875.062761,4175.195320 3878.327885,4178.301739 3875.760267,4180.981413"/>
    <poly id="1080123123" type="unknown" color="51,128,255" fill="1" layer="-1.00" shape="3878.327885,4178.301739 3881.506805,4175.017963 3878.192804,4171.876632 3875.062761,4175.195320 3878.327885,4178.301739"/>
    <poly id="1085629201" type="unknown" color="51,128,255" fill="1" layer="-1.00" shape="3918.626091,5041.217104 3920.698304,5043.652056 3925.540746,5041.477410 3923.424020,5039.096707 3918.626091,5041.217104"/>
    <poly id="1085999527" type="unknown" color="51,128,255" fill="1" layer="-1.00" shape="3539.975262,4174.057345 3545.798984,4171.334211 3542.974110,4165.315038 3537.143252,4168.037953 3539.975262,4174.057345"/>
    <poly id="1085999528" type="unknown" color="51,128,255" fill="0" layer="-1.00" shape="3916.969639,4817.335107 3901.449030,4821.135122"/>
    <poly id="1085999529" type="unknown" color="51,128,255" fill="0" layer="-1.00" shape="4747.572643,5047.843759 4733.488005,5015.408525"/>
    <poly id="1092714146" type="unknown" color="51,128,255" fill="1" layer="-1.00" shape="3254.071962,2750.665548 3277.429742,2746.194323 3274.767991,2732.357469 3251.410155,2736.828707 3254.071962,2750.665548"/>
    <poly id="1093173763" type="unknown" color="51,128,255" fill="0" layer="-1.00" shape="4479.139945,4905.537691 4595.547823,4849.692741"/>
    <poly id="1095342164" type="unknown" color="51,128,255" fill="0" layer="-1.00" shape="5078.096764,4853.105203 5108.694190,4848.792002 5113.791390,4848.073078 5138.813600,4844.475076"/>
    <poly id="1096325598" type="unknown" color="51,128,255" fill="0" layer="-1.00" shape="4461.841050,4863.999980 4472.534862,4889.684707"/>
    <poly id="1096349411" type="unknown" color="51,128,255" fill="0" layer="-1.00" shape="4334.168932,4925.215217 4351.097312,4953.298097"/>
    <poly id="1096349412" type="unknown" color="51,128,255" fill="0" layer="-1.00" shape="4289.679346,4945.656955 4292.691705,4944.271130 4334.168932,4925.215217"/>
    <poly id="1096349413" type="unknown" color="51,128,255" fill="0" layer="-1.00" shape="4063.291064,4751.918458 4066.468155,4750.515392 4086.464788,4741.669958 4125.312102,4730.052832 4170.618451,4717.079897"/>
    <poly id="1096349414" type="unknown" color="51,128,255" fill="0" layer="-1.00" shape="4255.651028,4692.028970 4299.826903,4675.972650"/>
    <poly id="1096349415" type="unknown" color="51,128,255" fill="0" layer="-1.00" shape="4170.618451,4717.079897 4186.289481,4712.595400 4219.360646,4703.113059 4255.651028,4692.028970"/>
    <poly id="1097198933" type="unknown" color="51,128,255" fill="0" layer="-1.00" shape="4239.618187,4456.947062 4275.941958,4457.403925 4289.112062,4456.914378 4296.092179,4456.932354 4302.571945,4458.114271 4308.321647,4463.468665 4312.678772,4469.758786 4319.504050,4482.257701 4320.807254,4484.635367 4343.014893,4548.904984 4344.977049,4552.805568 4347.685476,4555.894890 4349.603609,4555.954896 4353.504049,4556.076917"/>
    <poly id="1097198934" type="unknown" color="51,128,255" fill="0" layer="-1.00" shape="4220.922458,4456.785497 4229.306978,4456.858413 4239.618187,4456.947062"/>
    <poly id="1097444293" type="unknown" color="51,128,255" fill="0" layer="-1.00" shape="5138.813600,4844.475076 5145.848636,4846.365461 5149.592996,4849.176200 5151.649309,4853.692133 5148.391244,4865.608186"/>
    <poly id="1097444294" type="unknown" color="51,128,255" fill="0" layer="-1.00" shape="5117.759425,4927.330546 5111.587425,4939.767078"/>
    <poly id="1097444295" type="unknown" color="51,128,255" fill="0" layer="-1.00" shape="5128.534050,4905.613095 5117.759425,4927.330546"/>
    <poly id="1097444296" type="unknown" color="51,128,255" fill="0" layer="-1.00" shape="5132.054285,4898.523793 5128.534050,4905.613095"/>
    <poly id="1097444297" type="unknown" color="51,128,255" fill="0" layer="-1.00" shape="5136.351782,4889.867590 5132.054285,4898.523793"/>
    <poly id="1097444298" type="unknown" color="51,128,255" fill="0" layer="-1.00" shape="4768.372342,4650.229810 4776.856928,4650.518179 4786.232476,4650.845636"/>
    <poly id="1097720174" type="unknown" color="51,128,255" fill="0" layer="-1.00" shape="4780.096799,5135.630378 4854.875713,5124.522770 4906.355514,5118.337818"/>
    <poly id="1099849675" type="unknown" color="51,128,255" fill="0" layer="-1.00" shape="4776.856928,4650.518179 4800.439751,4720.352761"/>
    <poly id="1099849976" type="unknown" color="51,128,255" fill="1" layer="-1.00" shape="4873.431874,4751.353759 4891.914215,4752.601536 4900.603478,4753.185868 4894.639465,4799.937370 4887.316457,4799.941208 4873.431874,4751.353759"/>
    <poly id="1099849977" type="unknown" color="51,128,255" fill="1" layer="-1.00" shape="4871.552762,4744.139361 4889.842608,4745.381088 4891.914215,4752.601536 4873.431874,4751.353759 4871.552762,4744.139361"/>
    <poly id="1099850301" type="unknown" color="51,128,255" fill="1" layer="-1.00" shape="4198.569037,4649.693638 4198.647784,4637.355025 4219.606022,4637.498246 4221.254555,4637.505267 4221.175756,4649.843881 4198.569037,4649.693638"/>
    <poly id="1099850302" type="unknown" color="51,128,255" fill="0" layer="-1.00" shape="4280.567352,4616.491453 4257.168269,4623.415929 4238.886420,4626.472108 4220.054212,4625.215693"/>
    <poly id="1099850303" type="unknown" color="51,128,255" fill="0" layer="-1.00" shape="4209.042052,4531.106009 4207.664771,4581.106068"/>
    <poly id="1099850304" type="unknown" color="51,128,255" fill="0" layer="-1.00" shape="4228.413385,4481.790830 4227.476864,4507.868101"/>
    <poly id="1099850305" type="unknown" color="51,128,255" fill="0" layer="-1.00" shape="4228.559011,4477.588956 4228.413385,4481.790830"/>
    <poly id="1099850306" type="unknown" color="51,128,255" fill="0" layer="-1.00" shape="4235.799823,4524.519993 4252.813862,4531.662012"/>
    <poly id="1099850308" type="unknown" color="51,128,255" fill="0" layer="-1.00" shape="4229.306978,4456.858413 4228.559011,4477.588956"/>
    <poly id="1099850309" type="unknown" color="51,128,255" fill="0" layer="-1.00" shape="4170.364309,4454.559937 4170.226567,4467.875972 4169.515473,4536.770099 4166.241740,4543.544966 4165.676005,4571.013706 4172.848315,4580.407400 4207.664771,4581.106068 4207.840473,4599.918066 4220.949188,4600.238802 4220.054212,4625.215693 4219.606022,4637.498246"/>
    <poly id="1099850427" type="unknown" color="51,128,255" fill="0" layer="-1.00" shape="5071.690471,4828.933731 5086.954097,4823.125931 5088.821449,4822.528048 5095.698841,4820.351612 5101.732913,4818.438014 5120.952929,4812.331778 5136.235325,4806.157473"/>
    <poly id="1099850611" type="unknown" color="51,128,255" fill="1" layer="-1.00" shape="3724.091131,4503.484386 3727.195739,4503.492119 3727.195307,4497.093473 3724.090349,4497.096858 3724.091131,4503.484386"/>
    <poly id="1100585501" type="unknown" color="51,128,255" fill="0" layer="-1.00" shape="3897.602619,4403.612090 3906.015560,4401.860375 3924.019588,4400.174236 3969.355560,4395.924813"/>
    <poly id="1100585502" type="unknown" color="51,128,255" fill="0" layer="-1.00" shape="3897.602619,4403.612090 3911.338554,4399.400223"/>
    <poly id="110440579" type="unknown" color="51,128,255" fill="1" layer="-1.00" shape="3857.580095,5026.025439 3858.954290,5026.357638 3860.365481,5026.190228 3861.627250,5025.550778 3862.407650,5024.785030 3863.074972,5023.526119 3863.188697,5021.482100 3862.673138,5020.164031 3861.337632,5018.820382 3860.012111,5018.300523 3857.910351,5018.413006 3856.655017,5019.074914 3855.715177,5020.147275 3855.310585,5020.991516 3855.102898,5022.387176 3855.608248,5024.261330 3856.501850,5025.357502 3857.580095,5026.025439"/>
    <poly id="1105432017" type="unknown" color="51,128,255" fill="0" layer="-1.00" shape="3127.029219,3188.734771 3131.287067,3203.132985 3141.180835,3240.429462"/>
    <poly id="1115573512" type="unknown" color="51,128,255" fill="1" layer="-1.00" shape="3555.185016,4883.865275 3550.968978,4812.514523 3538.187035,4759.536569 3498.113757,4730.802870 3447.271127,4746.758401 3470.439816,4795.797282 3435.249152,4850.075319 3470.545165,4896.987777 3487.544430,5112.098835 3450.016004,5302.544533 3495.599126,5312.554211 3513.961998,5329.951498 3528.527407,5359.749670 3560.437725,5389.887740 3591.690990,5380.167103 3566.457456,5296.276842 3559.374015,5265.698914 3551.341770,5142.517204 3562.620298,5075.287775 3564.507149,5033.260252 3555.185016,4883.865275"/>
    <poly id="1115573513" type="unknown" color="51,128,255" fill="1" layer="-1.00" shape="3398.639465,4439.235956 3406.133078,4434.216615 3369.292391,4366.614315 3315.814491,4249.810083 3302.552703,4216.959713 3287.128991,4175.807472 3274.459805,4135.130374 3262.598304,4087.979668 3254.968616,4047.748572 3246.219208,3984.737090 3233.140310,3850.605695 3204.420435,3838.262847 3172.164636,3742.550808 3157.063970,3716.198218 3131.813798,3724.049543 3104.088969,3765.630944 3150.103699,3792.531450 3152.157866,3829.829448 3143.439543,3965.542642 3042.086828,4005.239199 2982.010667,4079.835483 2951.699320,4076.714181 2945.722718,4103.247049 2940.407698,4162.305217 2996.464949,4170.954577 3009.110840,4178.168380 3004.641255,4257.806120 3033.113770,4275.526257 3099.894188,4283.374511 3097.218939,4269.303584 3121.238527,4260.312345 3118.343206,4224.134398 3186.807839,4263.494837 3139.870000,4303.700242 3136.262169,4306.793068 3165.558877,4325.073689 3205.346640,4295.373768 3217.153546,4260.420317 3262.663309,4231.288038 3330.751309,4362.856487 3355.423105,4449.042217 3398.639465,4439.235956"/>
    <poly id="1115573514" type="unknown" color="51,128,255" fill="1" layer="-1.00" shape="3248.612905,4467.744284 3197.093778,4376.073547 3164.822968,4399.096484 3173.345861,4413.326836 3166.525478,4419.658252 3228.399610,4485.421741 3248.612905,4467.744284"/>
    <poly id="1115573515" type="unknown" color="51,128,255" fill="1" layer="-1.00" shape="3099.894188,4283.374511 3139.870000,4303.700242 3186.807839,4263.494837 3118.343206,4224.134398 3121.238527,4260.312345 3097.218939,4269.303584 3099.894188,4283.374511"/>
    <poly id="1115573516" type="unknown" color="51,128,255" fill="1" layer="-1.00" shape="3415.317716,4677.015300 3421.708956,4673.007736 3419.519138,4669.523307 3415.515784,4672.024978 3413.883336,4669.437005 3411.488662,4670.931562 3415.317716,4677.015300"/>
    <poly id="1115573517" type="unknown" color="51,128,255" fill="1" layer="-1.00" shape="3298.912891,4611.200872 3323.958867,4630.685715 3381.373420,4588.181609 3361.789305,4565.427790 3298.912891,4611.200872"/>
    <poly id="1115573518" type="unknown" color="51,128,255" fill="1" layer="-1.00" shape="3538.187035,4759.536569 3498.113757,4730.802870 3484.684194,4707.093916 3460.098023,4722.175106 3451.096815,4740.790409 3417.987109,4709.592177 3464.741905,4680.511605 3430.629692,4641.837468 3385.498624,4661.621311 3359.874441,4688.510885 3334.591742,4676.652308 3281.326313,4622.683573 3247.560256,4563.401270 3257.934772,4471.183200 3355.423105,4449.042217 3398.639465,4439.235956 3427.441523,4485.756771 3479.669059,4591.428871 3522.686126,4722.587421 3538.187035,4759.536569"/>
    <poly id="1115573519" type="unknown" color="51,128,255" fill="1" layer="-1.00" shape="3239.355312,3767.739479 3246.601080,3857.800838 3257.633882,3980.351236 3269.116564,4060.607050 3285.001756,4060.744617 3292.397721,4028.792307 3290.471273,4016.591789 3304.164541,3976.099730 3314.118229,3944.082276 3319.058941,3917.639933 3342.358061,3869.890631 3344.024525,3862.898413 3345.264266,3843.685514 3342.621681,3777.825761 3311.688244,3766.415052 3239.355312,3767.739479"/>
    <poly id="1115573520" type="unknown" color="51,128,255" fill="0" layer="-1.00" shape="5332.347736,4130.220751 5326.369830,4144.388073 5323.352203,4148.866830 5316.907849,4152.903929 5311.915367,4154.583017 5302.415357,4160.905440"/>
    <poly id="1115573522" type="unknown" color="51,128,255" fill="1" layer="-1.00" shape="4722.565932,4832.719757 4723.562514,4836.445560 4724.387495,4839.498292 4730.865365,4837.765120 4728.838999,4830.234574 4722.361120,4831.967748 4722.565932,4832.719757"/>
    <poly id="1115573529" type="unknown" color="51,128,255" fill="0" layer="-1.00" shape="5224.074464,4571.721246 5226.992859,4569.253534 5229.642116,4566.265462"/>
    <poly id="1115573530" type="unknown" color="51,128,255" fill="0" layer="-1.00" shape="5280.681384,4583.806483 5283.449051,4579.097285 5284.217371,4577.363196"/>
    <poly id="1115573531" type="unknown" color="51,128,255" fill="0" layer="-1.00" shape="5301.084260,4577.571132 5300.846453,4579.911707 5300.317561,4584.925027"/>
    <poly id="1115573532" type="unknown" color="51,128,255" fill="0" layer="-1.00" shape="5319.307783,4586.156857 5318.991946,4580.315724 5318.861472,4578.564486"/>
    <poly id="1115573533" type="unknown" color="51,128,255" fill="0" layer="-1.00" shape="5337.852970,4587.241210 5337.429362,4581.196376 5337.517360,4579.307346"/>
    <poly id="1115573534" type="unknown" color="51,128,255" fill="1" layer="-1.00" shape="5022.762070,4447.713420 5012.780690,4441.891464 5012.147138,4442.973258 5008.210493,4449.682332 5018.191862,4455.504279 5022.762070,4447.713420"/>
    <poly id="1115573535" type="unknown" color="51,128,255" fill="1" layer="-1.00" shape="4997.515464,4445.674145 5007.193721,4451.375269 5008.210493,4449.682332 5012.147138,4442.973258 5002.475652,4437.283466 4997.515464,4445.674145"/>
    <poly id="1115573536" type="unknown" color="51,128,255" fill="1" layer="-1.00" shape="5461.322737,5015.014526 5465.802031,5009.891949 5460.745133,5005.481673 5459.552728,5006.857405 5456.265841,5010.604255 5461.322737,5015.014526"/>
    <poly id="1115573540" type="unknown" color="51,128,255" fill="1" layer="-1.00" shape="3515.854276,4157.827489 3538.071365,4203.576380 3453.751667,4237.040556 3432.484710,4203.640315 3429.464739,4189.892296 3478.685505,4171.626881 3515.854276,4157.827489"/>
    <poly id="1115573541" type="unknown" color="51,128,255" fill="1" layer="-1.00" shape="3766.022366,4113.128312 3758.777017,4115.194861 3760.129031,4119.910783 3767.374721,4117.833118 3766.022366,4113.128312"/>
    <poly id="1115573542" type="unknown" color="51,128,255" fill="1" layer="-1.00" shape="3711.913521,3885.698557 3716.609562,3890.084658 3720.714264,3885.727953 3716.018568,3881.330731 3711.913521,3885.698557"/>
    <poly id="1115573543" type="unknown" color="51,128,255" fill="1" layer="-1.00" shape="3151.233848,3769.008614 3158.805109,3768.865359 3158.685898,3762.819166 3151.114284,3762.973538 3151.233848,3769.008614"/>
    <poly id="1115573544" type="unknown" color="51,128,255" fill="1" layer="-1.00" shape="3150.760863,3779.643402 3158.364542,3779.834993 3158.542688,3772.718619 3150.938999,3772.527028 3150.760863,3779.643402"/>
    <poly id="1115573545" type="unknown" color="51,128,255" fill="1" layer="-1.00" shape="3219.483807,3231.232090 3234.801793,3238.217722 3256.637112,3254.419520 3287.229453,3280.585970 3298.553729,3316.836715 3290.683124,3341.986210 3274.259267,3358.657511 3260.800479,3358.940433 3241.732988,3372.469502 3239.801578,3365.699335 3236.823357,3352.409042 3261.776825,3347.965192 3278.263779,3328.803146 3280.610956,3308.634275 3274.710797,3288.976993 3246.826663,3268.247297 3223.506135,3258.720705 3219.483807,3231.232090"/>
    <poly id="1115573546" type="unknown" color="51,128,255" fill="1" layer="-1.00" shape="3223.506135,3258.720705 3246.826663,3268.247297 3274.710797,3288.976993 3280.610956,3308.634275 3278.263779,3328.803146 3261.776825,3347.965192 3236.823357,3352.409042 3226.454341,3317.801671 3221.534601,3281.972577 3223.506135,3258.720705"/>
    <poly id="1115573547" type="unknown" color="51,128,255" fill="1" layer="-1.00" shape="3331.220125,3310.017777 3335.915331,3325.253257 3342.207764,3323.323388 3337.505442,3308.087681 3331.220125,3310.017777"/>
    <poly id="1117901380" type="unknown" color="51,128,255" fill="0" layer="-1.00" shape="3580.415807,4680.762916 3581.643101,4674.814247"/>
    <poly id="1122926602" type="unknown" color="51,128,255" fill="1" layer="-1.00" shape="3983.641829,3792.694895 4007.450518,3785.325588 4013.240631,3769.292709 4008.398485,3754.953285 3993.420407,3739.896919 3951.068639,3716.274711 3921.498027,3712.915135 3873.949819,3632.489676 3848.076242,3645.626319 3824.456708,3604.784423 3817.077904,3577.446470 3774.374746,3568.470459 3780.172941,3630.267138 3723.136839,3647.140371 3655.332954,3644.627643 3650.129733,3667.979123 3657.278821,3686.440616 3689.380093,3700.004051 3729.177779,3714.219230 3809.039892,3773.461270 3887.530472,3733.343912 3928.606391,3797.865948 3963.462357,3775.039246 3983.641829,3792.694895"/>
    <poly id="1125663629" type="unknown" color="51,128,255" fill="0" layer="-1.00" shape="5294.898864,5060.419826 5295.284957,5054.500623 5297.266206,5023.971435 5298.220992,5009.278818 5300.127484,4977.723482 5300.399603,4973.158338"/>
    <poly id="1125798112" type="unknown" color="51,128,255" fill="0" layer="-1.00" shape="4761.098818,4606.546181 4768.372342,4650.229810"/>
    <poly id="1125807170" type="unknown" color="51,128,255" fill="1" layer="-1.00" shape="3977.882326,4670.876561 3977.880854,4609.872348 3995.753406,4602.774134 4032.040766,4599.789667 4034.080446,4536.523392 4163.507776,4535.102327 4164.391991,4457.010672 4190.814297,4457.513663 4300.969118,4459.610953 4306.251517,4466.441898 4318.844412,4485.775812 4331.790412,4523.025954 4296.019626,4535.483469 4287.875447,4537.999680 4285.313678,4529.762659 4251.990581,4541.328860 4277.910687,4620.191937 4263.855485,4624.348350 4223.745025,4631.585068 4222.920050,4654.093707 4196.156329,4655.182282 4130.862131,4669.377764 3982.432722,4675.325173 3977.882326,4670.876561"/>
    <poly id="1125807171" type="unknown" color="51,128,255" fill="0" layer="-1.00" shape="4031.567833,4533.329074 4090.684277,4533.461506"/>
    <poly id="1125807172" type="unknown" color="51,128,255" fill="0" layer="-1.00" shape="4139.504656,4533.484329 4160.784864,4533.615100"/>
    <poly id="1125884949" type="unknown" color="51,128,255" fill="0" layer="-1.00" shape="4669.537012,5155.754943 4688.234061,5152.613187 4738.019192,5144.236887 4780.096799,5135.630378"/>
    <poly id="1126008285" type="unknown" color="51,128,255" fill="0" layer="-1.00" shape="3951.911562,4916.174703 3955.142641,4917.610924 3976.631388,4928.386005"/>
    <poly id="1126008286" type="unknown" color="51,128,255" fill="0" layer="-1.00" shape="3972.687996,4954.569713 3973.752057,4938.545093"/>
    <poly id="1126008287" type="unknown" color="51,128,255" fill="0" layer="-1.00" shape="3974.772640,4932.601167 3976.631388,4928.386005 3977.928690,4925.466431"/>
    <poly id="1126008288" type="unknown" color="51,128,255" fill="0" layer="-1.00" shape="3973.752057,4938.545093 3974.772640,4932.601167"/>
    <poly id="1126008289" type="unknown" color="51,128,255" fill="0" layer="-1.00" shape="3984.672703,4956.802241 3991.197240,4941.215170"/>
    <poly id="1126060035" type="unknown" color="51,128,255" fill="0" layer="-1.00" shape="4019.266054,4988.106236 4012.670237,4978.775241"/>
    <poly id="1126060036" type="unknown" color="51,128,255" fill="0" layer="-1.00" shape="4069.189623,5015.738523 4065.125629,5014.009136"/>
    <poly id="1126060037" type="unknown" color="51,128,255" fill="0" layer="-1.00" shape="3987.761469,5013.774359 3986.944497,5011.367441 3982.411037,4997.927836 3976.925060,4986.650735 3979.460672,4983.157775"/>
    <poly id="1126060038" type="unknown" color="51,128,255" fill="0" layer="-1.00" shape="4032.434346,4998.143249 4025.535469,4998.061350 4023.587216,4994.628698"/>
    <poly id="1126060039" type="unknown" color="51,128,255" fill="0" layer="-1.00" shape="4023.587216,4994.628698 4019.266054,4988.106236"/>
    <poly id="1126060040" type="unknown" color="51,128,255" fill="0" layer="-1.00" shape="4088.882476,4994.197617 4085.237460,4990.021993 4081.151398,4985.342959 4090.608163,4976.424301"/>
    <poly id="1126060041" type="unknown" color="51,128,255" fill="0" layer="-1.00" shape="4081.151398,4985.342959 4073.576179,4992.061398"/>
    <poly id="1126060042" type="unknown" color="51,128,255" fill="1" layer="-1.00" shape="3984.540711,5012.238283 3992.571166,5009.907278 3988.132650,4996.170174 3979.917639,4990.238379 3986.045289,4980.047167 3974.646465,4977.109596 3972.821929,4982.972785 3980.486948,4997.378132 3979.360280,4998.032901 3984.540711,5012.238283"/>